Version 4
SHEET 1 2576 680
WIRE 2128 -512 2000 -512
WIRE 2384 -512 2208 -512
WIRE 1072 -496 944 -496
WIRE 1216 -496 1152 -496
WIRE 1408 -496 1296 -496
WIRE 944 -384 944 -496
WIRE 1152 -384 944 -384
WIRE 1408 -384 1408 -496
WIRE 1408 -384 1216 -384
WIRE 2000 -384 2000 -512
WIRE 2144 -384 2000 -384
WIRE 2384 -384 2384 -512
WIRE 2384 -384 2208 -384
WIRE 1680 -352 1680 -368
WIRE 2096 -272 2096 -304
WIRE 512 -240 512 -256
WIRE 1136 -240 1136 -272
WIRE 1680 -224 1680 -272
WIRE 1888 -224 1680 -224
WIRE 2000 -224 2000 -384
WIRE 2000 -224 1968 -224
WIRE 2064 -224 2000 -224
WIRE 224 -192 224 -256
WIRE 352 -192 352 -256
WIRE 848 -192 816 -192
WIRE 944 -192 944 -384
WIRE 944 -192 928 -192
WIRE 1104 -192 944 -192
WIRE 1680 -192 1680 -224
WIRE 2256 -192 2208 -192
WIRE 2384 -192 2384 -384
WIRE 2384 -192 2336 -192
WIRE 2496 -192 2384 -192
WIRE 1408 -160 1408 -384
WIRE 1408 -160 1248 -160
WIRE 1488 -160 1408 -160
WIRE 1888 -160 1824 -160
WIRE 2000 -160 1968 -160
WIRE 2064 -160 2000 -160
WIRE 512 -144 512 -160
WIRE 608 -144 512 -144
WIRE 512 -128 512 -144
WIRE 1104 -128 1056 -128
WIRE 1680 -96 1680 -112
WIRE 2000 -96 2000 -160
WIRE 816 -80 816 -192
WIRE 224 -64 224 -112
WIRE 352 -64 352 -112
WIRE 816 48 816 0
FLAG 224 -64 0
FLAG 816 48 0
FLAG 512 -48 0
FLAG 224 -256 5V
FLAG 352 -64 0
FLAG 352 -256 2.5V
FLAG 608 -144 VOFF
FLAG 512 -256 2.5V
FLAG 1136 -80 0
FLAG 1136 -272 5V
FLAG 2096 -112 0
FLAG 2096 -304 5V
FLAG 1488 -160 STAGE_1
FLAG 1824 -160 STAGE_1
FLAG 2000 -16 0
FLAG 1680 -16 0
FLAG 1680 -368 2.5V
FLAG 2496 -192 OP_1
FLAG 1056 -128 2.5V
SYMBOL res 1168 -512 R90
WINDOW 0 0 56 VBottom 2
WINDOW 3 32 56 VTop 2
SYMATTR InstName R1
SYMATTR Value 47k
SYMBOL res 1312 -512 R90
WINDOW 0 0 56 VBottom 2
WINDOW 3 32 56 VTop 2
SYMATTR InstName R2
SYMATTR Value 47k
SYMBOL cap 1216 -400 R90
WINDOW 0 0 32 VBottom 2
WINDOW 3 32 32 VTop 2
SYMATTR InstName C1
SYMATTR Value 220n
SYMBOL res 944 -208 R90
WINDOW 0 0 56 VBottom 2
WINDOW 3 32 56 VTop 2
SYMATTR InstName R3
SYMATTR Value 47
SYMBOL voltage 224 -208 R0
WINDOW 123 0 0 Left 0
WINDOW 39 0 0 Left 0
SYMATTR InstName V1
SYMATTR Value 5
SYMBOL current 816 -80 R0
WINDOW 3 32 71 Left 2
WINDOW 123 24 164 Left 2
WINDOW 39 0 0 Left 0
SYMATTR Value 1
SYMATTR InstName I1
SYMBOL res 496 -256 R0
SYMATTR InstName R5
SYMATTR Value 1Meg
SYMBOL res 496 -144 R0
SYMATTR InstName R6
SYMATTR Value 10k
SYMBOL OpAmps\\LT6011 1136 -160 R0
SYMATTR InstName U1
SYMBOL voltage 352 -208 R0
WINDOW 123 0 0 Left 0
WINDOW 39 0 0 Left 0
SYMATTR InstName V3
SYMATTR Value 2.5
SYMBOL OpAmps\\LT6011 2096 -192 R0
SYMATTR InstName U2
SYMBOL res 1984 -176 R90
WINDOW 0 85 51 VBottom 2
WINDOW 3 32 56 VTop 2
SYMATTR InstName R8
SYMATTR Value 200k
SYMBOL res 1984 -112 R0
SYMATTR InstName R9
SYMATTR Value 1Meg
SYMBOL res 1984 -240 R90
WINDOW 0 0 56 VBottom 2
WINDOW 3 -52 57 VTop 2
SYMATTR InstName R10
SYMATTR Value 180k
SYMBOL res 1696 0 R180
WINDOW 0 36 76 Left 2
WINDOW 3 36 40 Left 2
SYMATTR InstName R11
SYMATTR Value 200k
SYMBOL res 1696 -96 R180
WINDOW 0 36 76 Left 2
WINDOW 3 36 40 Left 2
SYMATTR InstName R12
SYMATTR Value 4.7k
SYMBOL res 1696 -256 R180
WINDOW 0 36 76 Left 2
WINDOW 3 36 40 Left 2
SYMATTR InstName R13
SYMATTR Value 4.7k
SYMBOL res 2224 -528 R90
WINDOW 0 0 56 VBottom 2
WINDOW 3 32 56 VTop 2
SYMATTR InstName R14
SYMATTR Value 1Meg
SYMBOL res 2352 -208 R90
WINDOW 0 0 56 VBottom 2
WINDOW 3 32 56 VTop 2
SYMATTR InstName R15
SYMATTR Value 100
SYMBOL cap 2208 -400 R90
WINDOW 0 0 32 VBottom 2
WINDOW 3 32 32 VTop 2
SYMATTR InstName C2
SYMATTR Value 10n
TEXT 1080 0 Left 2 !.dc I1 0 12500n 50n
